Version 4
SHEET 1 1376 680
WIRE -272 -736 -272 -752
WIRE -144 -736 -144 -752
WIRE 0 -736 0 -752
WIRE 128 -736 128 -752
WIRE -272 -640 -272 -656
WIRE -144 -640 -144 -656
WIRE 0 -640 0 -656
WIRE 128 -640 128 -656
WIRE 544 -608 464 -608
WIRE 704 -608 624 -608
WIRE 992 -608 896 -608
WIRE 848 -416 848 -432
WIRE 336 -256 304 -256
WIRE 464 -256 464 -608
WIRE 464 -256 416 -256
WIRE 528 -256 464 -256
WIRE 992 -256 992 -608
WIRE 992 -256 720 -256
WIRE -640 -224 -640 -240
WIRE -544 -224 -544 -240
WIRE -640 -80 -640 -144
WIRE -544 -80 -544 -144
WIRE 672 -64 672 -80
WIRE 176 80 96 80
WIRE 304 80 304 -256
WIRE 304 80 256 80
WIRE 400 80 304 80
WIRE 992 80 992 -256
WIRE 992 80 592 80
WIRE 544 272 544 256
WIRE -32 304 -96 304
WIRE 96 304 96 80
WIRE 96 304 48 304
WIRE 176 304 96 304
WIRE 992 304 992 80
WIRE 992 304 368 304
WIRE 1104 304 992 304
WIRE 1248 304 1184 304
WIRE -96 384 -96 304
WIRE 992 384 992 304
WIRE 1056 384 992 384
WIRE 1248 400 1248 304
WIRE 1248 400 1120 400
WIRE 1264 400 1248 400
WIRE 1056 416 992 416
WIRE 992 448 992 416
WIRE 320 496 320 480
WIRE 992 544 992 528
FLAG 320 496 0
FLAG 272 240 v+
FLAG 224 480 v-
FLAG 1088 368 v+
FLAG 1088 432 v-
FLAG 992 544 0
FLAG 1264 400 Out_et3
FLAG -96 384 0
FLAG 544 272 0
FLAG 496 16 v+
FLAG 448 256 v-
FLAG 672 -64 0
FLAG 624 -320 v+
FLAG 576 -80 v-
FLAG 848 -416 0
FLAG 800 -672 v+
FLAG 752 -432 v-
FLAG 176 368 sw1
FLAG 400 144 sw2
FLAG 528 -192 sw3
FLAG 704 -544 sw4
FLAG -640 -80 0
FLAG -544 -80 0
FLAG -640 -240 v+
FLAG -544 -240 v-
FLAG -272 -640 0
FLAG -272 -752 sw1
FLAG -144 -640 0
FLAG -144 -752 sw2
FLAG 0 -640 0
FLAG 0 -752 sw3
FLAG 128 -640 0
FLAG 128 -752 sw4
SYMBOL Switches\\ADGS1612 272 352 R0
SYMATTR InstName S1
SYMBOL voltage -640 -240 R0
WINDOW 123 0 0 Left 0
WINDOW 39 0 0 Left 0
SYMATTR InstName v+
SYMATTR Value 5
SYMBOL voltage -544 -240 R0
WINDOW 123 0 0 Left 0
WINDOW 39 0 0 Left 0
SYMATTR InstName v-
SYMATTR Value -5
SYMBOL OpAmps\\LT6234 1088 400 R0
SYMATTR InstName U5
SYMBOL voltage 992 432 R0
WINDOW 123 24 124 Left 2
WINDOW 39 0 0 Left 0
SYMATTR Value2 AC 1
SYMATTR InstName V1
SYMATTR Value SINE(0 95m 5k)
SYMBOL res 1200 288 R90
WINDOW 0 0 56 VBottom 2
WINDOW 3 32 56 VTop 2
SYMATTR InstName RF
SYMATTR Value 40k
SYMBOL res -48 288 M90
WINDOW 0 0 56 VBottom 2
WINDOW 3 32 56 VTop 2
SYMATTR InstName RG1
SYMATTR Value 10k
SYMBOL res 272 64 R90
WINDOW 0 0 56 VBottom 2
WINDOW 3 32 56 VTop 2
SYMATTR InstName RG2
SYMATTR Value 3.33k
SYMBOL Switches\\ADGS1612 496 128 R0
SYMATTR InstName S2
SYMBOL Switches\\ADGS1612 624 -208 R0
SYMATTR InstName S3
SYMBOL res 432 -272 R90
WINDOW 0 0 56 VBottom 2
WINDOW 3 32 56 VTop 2
SYMATTR InstName RG3
SYMATTR Value 5.18k
SYMBOL Switches\\ADGS1612 800 -560 R0
SYMATTR InstName S4
SYMBOL res 640 -624 R90
WINDOW 0 0 56 VBottom 2
WINDOW 3 32 56 VTop 2
SYMATTR InstName RG4
SYMATTR Value 8.15k
SYMBOL voltage -272 -752 R0
SYMATTR InstName sw1
SYMATTR Value 5
SYMBOL voltage -144 -752 R0
WINDOW 123 0 0 Left 0
WINDOW 39 0 0 Left 0
SYMATTR InstName sw2
SYMATTR Value 0
SYMBOL voltage 0 -752 R0
WINDOW 123 0 0 Left 0
WINDOW 39 0 0 Left 0
SYMATTR InstName sw3
SYMATTR Value 0
SYMBOL voltage 128 -752 R0
SYMATTR InstName sw4
SYMATTR Value 0
TEXT -272 -456 Left 2 !.op
TEXT -272 -424 Left 2 !.ac 100 1 10Meg
TEXT -272 -376 Left 2 !.FOUR 5k 10 V(Out_et3)
TEXT -256 -336 Left 2 !.tran 0 3m
